


 33 35  0  0  0  0  0  0  0  0999 V2000
    0.2373   -1.0334   -2.1081 C   0  0  0  0  0  0  0  0  0  0  0  0
    0.1388   -0.2395   -0.9420 O   0  0  0  0  0  0  0  0  0  0  0  0
    1.2474    0.6309   -0.9133 C   0  0  0  0  0  0  0  0  0  0  0  0
    1.7557    0.7853   -2.3484 C   0  0  0  0  0  0  0  0  0  0  0  0
    3.1297    1.0839   -2.4283 O   0  0  0  0  0  0  0  0  0  0  0  0
    1.3916   -0.5370   -2.9860 C   0  0  0  0  0  0  0  0  0  0  0  0
    2.4574   -1.4526   -2.9238 O   0  0  0  0  0  0  0  0  0  0  0  0
    3.6269    0.4582   -1.8393 H   0  0  0  0  0  0  0  0  0  0  0  0
    3.0297   -1.2810   -3.7168 H   0  0  0  0  0  0  0  0  0  0  0  0
   -4.4311   -1.2524   -6.0170 N   0  0  0  0  0  0  0  0  0  0  0  0
   -3.0364   -1.2569   -5.7121 C   0  0  0  0  0  0  0  0  0  0  0  0
   -2.1068   -1.4140   -6.7024 N   0  0  0  0  0  0  0  0  0  0  0  0
   -0.7639   -1.4309   -6.4258 C   0  0  0  0  0  0  0  0  0  0  0  0
   -0.3193   -1.2884   -5.1407 N   0  0  0  0  0  0  0  0  0  0  0  0
   -1.2420   -1.1286   -4.1607 C   0  0  0  0  0  0  0  0  0  0  0  0
   -2.5708   -1.1115   -4.4088 C   0  0  0  0  0  0  0  0  0  0  0  0
   -3.2628   -0.9731   -3.2622 N   0  0  0  0  0  0  0  0  0  0  0  0
   -2.2792   -0.9053   -2.3232 C   0  0  0  0  0  0  0  0  0  0  0  0
   -1.0280   -0.9870   -2.8456 N   0  0  0  0  0  0  0  0  0  0  0  0
   -5.1461   -1.1334   -5.2656 H   0  0  0  0  0  0  0  0  0  0  0  0
   -4.7508   -1.3647   -7.0047 H   0  0  0  0  0  0  0  0  0  0  0  0
    0.8226    1.9652   -0.2913 C   0  0  0  0  0  0  0  0  0  0  0  0
   -0.9565    1.9627    0.1380 S   0  0  0  0  0  0  0  0  0  0  0  0
   -1.4448    3.2317   -1.0840 C   0  0  0  0  0  0  0  0  0  0  0  0
   -1.5870    2.6025   -2.4761 C   0  0  0  0  0  0  0  0  0  0  0  0
   -1.0109    3.5027   -3.5979 C   0  0  0  0  0  0  0  0  0  0  0  0
   -1.7438    4.7670   -3.7122 N   0  0  0  0  0  0  0  0  0  0  0  0
   -1.4978    5.3843   -2.9055 H   0  0  0  0  0  0  0  0  0  0  0  0
   -2.7736    4.5851   -3.6800 H   0  0  0  0  0  0  0  0  0  0  0  0
   -1.0238    2.8182   -4.9382 C   0  0  0  0  0  0  0  0  0  0  0  0
   -2.0479    2.2081   -5.3530 O   0  0  0  0  0  0  0  0  0  0  0  0
    0.1158    2.8637   -5.7349 O   0  0  0  0  0  0  0  0  0  0  0  0
    0.1356    2.4136   -6.6426 H   0  0  0  0  0  0  0  0  0  0  0  0
  1 19  1  0  0  0
  1  2  1  0  0  0
  1  6  1  0  0  0
  2  3  1  0  0  0
  3 22  1  0  0  0
  3  4  1  0  0  0
  4  5  1  0  0  0
  4  6  1  0  0  0
  5  8  1  0  0  0
  6  7  1  0  0  0
  7  9  1  0  0  0
 10 11  1  0  0  0
 10 20  1  0  0  0
 10 21  1  0  0  0
 11 12  2  0  0  0
 11 16  1  0  0  0
 12 13  1  0  0  0
 13 14  2  0  0  0
 14 15  1  0  0  0
 15 16  2  0  0  0
 15 19  1  0  0  0
 16 17  1  0  0  0
 17 18  2  0  0  0
 18 19  1  0  0  0
 22 23  1  0  0  0
 23 24  1  0  0  0
 24 25  1  0  0  0
 25 26  1  0  0  0
 26 27  1  0  0  0
 26 30  1  0  0  0
 27 28  1  0  0  0
 27 29  1  0  0  0
 30 31  2  0  0  0
 30 32  1  0  0  0
 32 33  1  0  0  0
M  END
> <MODEL>
       1

> <COMPND>
    UNNAMED

> <AUTHOR>
    GENERATED BY OPEN BABEL 3.1.0

> <MASTER>
        0    0    0    0    0    0    0    0   33    0   33    0

> <minimizedAffinity>
-10.93185

> <CNNscore>
0.3759267330

> <CNNaffinity>
5.3853025436

> <CNN_VS>
2.0244791508

> <CNNaffinity_variance>
0.8305155039

$$$$



 33 35  0  0  0  0  0  0  0  0999 V2000
   -2.0342    0.2683   -2.9627 C   0  0  0  0  0  0  0  0  0  0  0  0
   -0.8610   -0.4782   -2.7054 O   0  0  0  0  0  0  0  0  0  0  0  0
   -0.3214   -0.8813   -3.9438 C   0  0  0  0  0  0  0  0  0  0  0  0
   -0.8371    0.0842   -5.0130 C   0  0  0  0  0  0  0  0  0  0  0  0
   -0.9126   -0.4886   -6.2974 O   0  0  0  0  0  0  0  0  0  0  0  0
   -2.1811    0.5141   -4.4685 C   0  0  0  0  0  0  0  0  0  0  0  0
   -3.2237   -0.2822   -4.9756 O   0  0  0  0  0  0  0  0  0  0  0  0
   -1.3673   -1.3684   -6.2282 H   0  0  0  0  0  0  0  0  0  0  0  0
   -3.4977    0.1208   -5.8407 H   0  0  0  0  0  0  0  0  0  0  0  0
   -1.6462    4.9188    0.9544 N   0  0  0  0  0  0  0  0  0  0  0  0
   -1.8323    3.5372    0.6469 C   0  0  0  0  0  0  0  0  0  0  0  0
   -1.9978    2.6171    1.6448 N   0  0  0  0  0  0  0  0  0  0  0  0
   -2.1676    1.2850    1.3676 C   0  0  0  0  0  0  0  0  0  0  0  0
   -2.1766    0.8421    0.0740 N   0  0  0  0  0  0  0  0  0  0  0  0
   -2.0165    1.7560   -0.9140 C   0  0  0  0  0  0  0  0  0  0  0  0
   -1.8448    3.0736   -0.6651 C   0  0  0  0  0  0  0  0  0  0  0  0
   -1.6769    3.7529   -1.8154 N   0  0  0  0  0  0  0  0  0  0  0  0
   -1.7612    2.7742   -2.7581 C   0  0  0  0  0  0  0  0  0  0  0  0
   -1.9802    1.5394   -2.2359 N   0  0  0  0  0  0  0  0  0  0  0  0
   -1.5187    5.6264    0.1974 H   0  0  0  0  0  0  0  0  0  0  0  0
   -1.6403    5.2371    1.9488 H   0  0  0  0  0  0  0  0  0  0  0  0
    1.2077   -0.8914   -3.8462 C   0  0  0  0  0  0  0  0  0  0  0  0
    1.7902   -2.1543   -2.6566 S   0  0  0  0  0  0  0  0  0  0  0  0
    2.4994   -0.9692   -1.4590 C   0  0  0  0  0  0  0  0  0  0  0  0
    2.7793    0.3752   -2.1434 C   0  0  0  0  0  0  0  0  0  0  0  0
    2.2143    1.5779   -1.3465 C   0  0  0  0  0  0  0  0  0  0  0  0
    1.0773    1.1892   -0.5068 N   0  0  0  0  0  0  0  0  0  0  0  0
    1.4229    0.6373    0.3107 H   0  0  0  0  0  0  0  0  0  0  0  0
    0.4220    0.5842   -1.0538 H   0  0  0  0  0  0  0  0  0  0  0  0
    1.7823    2.7035   -2.2473 C   0  0  0  0  0  0  0  0  0  0  0  0
    1.7424    2.5617   -3.5008 O   0  0  0  0  0  0  0  0  0  0  0  0
    1.4170    3.9220   -1.6840 O   0  0  0  0  0  0  0  0  0  0  0  0
    1.1203    4.6971   -2.2655 H   0  0  0  0  0  0  0  0  0  0  0  0
  1 19  1  0  0  0
  1  2  1  0  0  0
  1  6  1  0  0  0
  2  3  1  0  0  0
  3 22  1  0  0  0
  3  4  1  0  0  0
  4  5  1  0  0  0
  4  6  1  0  0  0
  5  8  1  0  0  0
  6  7  1  0  0  0
  7  9  1  0  0  0
 10 11  1  0  0  0
 10 20  1  0  0  0
 10 21  1  0  0  0
 11 12  2  0  0  0
 11 16  1  0  0  0
 12 13  1  0  0  0
 13 14  2  0  0  0
 14 15  1  0  0  0
 15 16  2  0  0  0
 15 19  1  0  0  0
 16 17  1  0  0  0
 17 18  2  0  0  0
 18 19  1  0  0  0
 22 23  1  0  0  0
 23 24  1  0  0  0
 24 25  1  0  0  0
 25 26  1  0  0  0
 26 27  1  0  0  0
 26 30  1  0  0  0
 27 28  1  0  0  0
 27 29  1  0  0  0
 30 31  2  0  0  0
 30 32  1  0  0  0
 32 33  1  0  0  0
M  END
> <MODEL>
       1

> <COMPND>
    UNNAMED

> <AUTHOR>
    GENERATED BY OPEN BABEL 3.1.0

> <MASTER>
        0    0    0    0    0    0    0    0   33    0   33    0

> <minimizedAffinity>
-11.42365

> <CNNscore>
0.3439159691

> <CNNaffinity>
5.9765615463

> <CNN_VS>
2.0554349422

> <CNNaffinity_variance>
0.5311163664

$$$$



 33 35  0  0  0  0  0  0  0  0999 V2000
   -2.0580   -0.0681   -2.5194 C   0  0  0  0  0  0  0  0  0  0  0  0
   -0.9413   -0.9201   -2.6834 O   0  0  0  0  0  0  0  0  0  0  0  0
   -0.3376   -0.6132   -3.9198 C   0  0  0  0  0  0  0  0  0  0  0  0
   -0.7333    0.8182   -4.2887 C   0  0  0  0  0  0  0  0  0  0  0  0
   -0.7473    1.0569   -5.6766 O   0  0  0  0  0  0  0  0  0  0  0  0
   -2.0898    0.9780   -3.6393 C   0  0  0  0  0  0  0  0  0  0  0  0
   -3.1313    0.6766   -4.5352 O   0  0  0  0  0  0  0  0  0  0  0  0
   -1.2462    0.3229   -6.1215 H   0  0  0  0  0  0  0  0  0  0  0  0
   -3.3263    1.5095   -5.0391 H   0  0  0  0  0  0  0  0  0  0  0  0
   -1.9944    3.5699    2.3675 N   0  0  0  0  0  0  0  0  0  0  0  0
   -1.9280    3.3429    0.9596 C   0  0  0  0  0  0  0  0  0  0  0  0
   -1.8217    4.3916    0.0887 N   0  0  0  0  0  0  0  0  0  0  0  0
   -1.7670    4.1921   -1.2669 C   0  0  0  0  0  0  0  0  0  0  0  0
   -1.8167    2.9271   -1.7835 N   0  0  0  0  0  0  0  0  0  0  0  0
   -1.9179    1.8885   -0.9186 C   0  0  0  0  0  0  0  0  0  0  0  0
   -1.9762    2.0608    0.4210 C   0  0  0  0  0  0  0  0  0  0  0  0
   -2.1074    0.8742    1.0437 N   0  0  0  0  0  0  0  0  0  0  0  0
   -2.1201   -0.0095    0.0081 C   0  0  0  0  0  0  0  0  0  0  0  0
   -1.9946    0.5824   -1.2080 N   0  0  0  0  0  0  0  0  0  0  0  0
   -2.0762    2.7738    3.0380 H   0  0  0  0  0  0  0  0  0  0  0  0
   -1.9570    4.5437    2.7425 H   0  0  0  0  0  0  0  0  0  0  0  0
    1.1790   -0.7928   -3.7967 C   0  0  0  0  0  0  0  0  0  0  0  0
    1.5979   -2.1090   -2.5960 S   0  0  0  0  0  0  0  0  0  0  0  0
    2.4660   -1.0154   -1.4160 C   0  0  0  0  0  0  0  0  0  0  0  0
    1.4882    0.0049   -0.8184 C   0  0  0  0  0  0  0  0  0  0  0  0
    2.1456    1.3863   -0.5731 C   0  0  0  0  0  0  0  0  0  0  0  0
    1.5095    2.1030    0.5363 N   0  0  0  0  0  0  0  0  0  0  0  0
    1.7884    1.6595    1.4406 H   0  0  0  0  0  0  0  0  0  0  0  0
    0.4688    2.0393    0.4504 H   0  0  0  0  0  0  0  0  0  0  0  0
    2.1020    2.2614   -1.7968 C   0  0  0  0  0  0  0  0  0  0  0  0
    2.7282    1.9506   -2.8477 O   0  0  0  0  0  0  0  0  0  0  0  0
    1.3530    3.4334   -1.7672 O   0  0  0  0  0  0  0  0  0  0  0  0
    1.3038    4.0412   -2.5766 H   0  0  0  0  0  0  0  0  0  0  0  0
  1 19  1  0  0  0
  1  2  1  0  0  0
  1  6  1  0  0  0
  2  3  1  0  0  0
  3 22  1  0  0  0
  3  4  1  0  0  0
  4  5  1  0  0  0
  4  6  1  0  0  0
  5  8  1  0  0  0
  6  7  1  0  0  0
  7  9  1  0  0  0
 10 11  1  0  0  0
 10 20  1  0  0  0
 10 21  1  0  0  0
 11 12  2  0  0  0
 11 16  1  0  0  0
 12 13  1  0  0  0
 13 14  2  0  0  0
 14 15  1  0  0  0
 15 16  2  0  0  0
 15 19  1  0  0  0
 16 17  1  0  0  0
 17 18  2  0  0  0
 18 19  1  0  0  0
 22 23  1  0  0  0
 23 24  1  0  0  0
 24 25  1  0  0  0
 25 26  1  0  0  0
 26 27  1  0  0  0
 26 30  1  0  0  0
 27 28  1  0  0  0
 27 29  1  0  0  0
 30 31  2  0  0  0
 30 32  1  0  0  0
 32 33  1  0  0  0
M  END
> <MODEL>
       1

> <COMPND>
    UNNAMED

> <AUTHOR>
    GENERATED BY OPEN BABEL 3.1.0

> <MASTER>
        0    0    0    0    0    0    0    0   33    0   33    0

> <minimizedAffinity>
-11.18415

> <CNNscore>
0.3338024318

> <CNNaffinity>
5.8705387115

> <CNN_VS>
1.9596000910

> <CNNaffinity_variance>
0.7810226083

$$$$



 33 35  0  0  0  0  0  0  0  0999 V2000
   -1.9322    0.2182   -3.0291 C   0  0  0  0  0  0  0  0  0  0  0  0
   -0.7351   -0.5079   -2.8301 O   0  0  0  0  0  0  0  0  0  0  0  0
   -0.2410   -0.8873   -4.0947 C   0  0  0  0  0  0  0  0  0  0  0  0
   -0.8200    0.0792   -5.1301 C   0  0  0  0  0  0  0  0  0  0  0  0
   -0.9390   -0.4814   -6.4166 O   0  0  0  0  0  0  0  0  0  0  0  0
   -2.1476    0.4768   -4.5245 C   0  0  0  0  0  0  0  0  0  0  0  0
   -3.1954   -0.3343   -4.9960 O   0  0  0  0  0  0  0  0  0  0  0  0
   -1.3734   -1.3707   -6.3382 H   0  0  0  0  0  0  0  0  0  0  0  0
   -3.5135    0.0723   -5.8441 H   0  0  0  0  0  0  0  0  0  0  0  0
   -1.5489    4.8300    0.9339 N   0  0  0  0  0  0  0  0  0  0  0  0
   -1.7530    3.4544    0.6110 C   0  0  0  0  0  0  0  0  0  0  0  0
   -1.9575    2.5298    1.5972 N   0  0  0  0  0  0  0  0  0  0  0  0
   -2.1450    1.2032    1.3054 C   0  0  0  0  0  0  0  0  0  0  0  0
   -2.1327    0.7707    0.0083 N   0  0  0  0  0  0  0  0  0  0  0  0
   -1.9339    1.6893   -0.9684 C   0  0  0  0  0  0  0  0  0  0  0  0
   -1.7442    3.0015   -0.7048 C   0  0  0  0  0  0  0  0  0  0  0  0
   -1.5381    3.6865   -1.8454 N   0  0  0  0  0  0  0  0  0  0  0  0
   -1.6188    2.7169   -2.7978 C   0  0  0  0  0  0  0  0  0  0  0  0
   -1.8718    1.4823   -2.2908 N   0  0  0  0  0  0  0  0  0  0  0  0
   -1.3917    5.5411    0.1858 H   0  0  0  0  0  0  0  0  0  0  0  0
   -1.5598    5.1403    1.9308 H   0  0  0  0  0  0  0  0  0  0  0  0
    1.2907   -0.8684   -4.0619 C   0  0  0  0  0  0  0  0  0  0  0  0
    1.9188   -0.8069   -2.3440 S   0  0  0  0  0  0  0  0  0  0  0  0
    2.7366    0.8203   -2.5027 C   0  0  0  0  0  0  0  0  0  0  0  0
    1.6961    1.9464   -2.4443 C   0  0  0  0  0  0  0  0  0  0  0  0
    2.2785    3.3177   -2.8697 C   0  0  0  0  0  0  0  0  0  0  0  0
    1.6505    4.4253   -2.1434 N   0  0  0  0  0  0  0  0  0  0  0  0
    1.9961    4.4331   -1.1571 H   0  0  0  0  0  0  0  0  0  0  0  0
    0.6127    4.2939   -2.1231 H   0  0  0  0  0  0  0  0  0  0  0  0
    2.1270    3.5656   -4.3465 C   0  0  0  0  0  0  0  0  0  0  0  0
    2.7909    4.4654   -4.9318 O   0  0  0  0  0  0  0  0  0  0  0  0
    1.2394    2.7836   -5.0787 O   0  0  0  0  0  0  0  0  0  0  0  0
    1.1179    2.9266   -6.0746 H   0  0  0  0  0  0  0  0  0  0  0  0
  1 19  1  0  0  0
  1  2  1  0  0  0
  1  6  1  0  0  0
  2  3  1  0  0  0
  3 22  1  0  0  0
  3  4  1  0  0  0
  4  5  1  0  0  0
  4  6  1  0  0  0
  5  8  1  0  0  0
  6  7  1  0  0  0
  7  9  1  0  0  0
 10 11  1  0  0  0
 10 20  1  0  0  0
 10 21  1  0  0  0
 11 12  2  0  0  0
 11 16  1  0  0  0
 12 13  1  0  0  0
 13 14  2  0  0  0
 14 15  1  0  0  0
 15 16  2  0  0  0
 15 19  1  0  0  0
 16 17  1  0  0  0
 17 18  2  0  0  0
 18 19  1  0  0  0
 22 23  1  0  0  0
 23 24  1  0  0  0
 24 25  1  0  0  0
 25 26  1  0  0  0
 26 27  1  0  0  0
 26 30  1  0  0  0
 27 28  1  0  0  0
 27 29  1  0  0  0
 30 31  2  0  0  0
 30 32  1  0  0  0
 32 33  1  0  0  0
M  END
> <MODEL>
       1

> <COMPND>
    UNNAMED

> <AUTHOR>
    GENERATED BY OPEN BABEL 3.1.0

> <MASTER>
        0    0    0    0    0    0    0    0   33    0   33    0

> <minimizedAffinity>
-11.62246

> <CNNscore>
0.3119360209

> <CNNaffinity>
6.0798006058

> <CNN_VS>
1.8965088129

> <CNNaffinity_variance>
0.4819688797

$$$$



 33 35  0  0  0  0  0  0  0  0999 V2000
   -5.5814    6.8478   -9.5539 C   0  0  0  0  0  0  0  0  0  0  0  0
   -4.9608    7.6089   -8.5364 O   0  0  0  0  0  0  0  0  0  0  0  0
   -3.6281    7.8521   -8.9262 C   0  0  0  0  0  0  0  0  0  0  0  0
   -3.5588    7.7293  -10.4500 C   0  0  0  0  0  0  0  0  0  0  0  0
   -2.2909    7.3418  -10.9249 O   0  0  0  0  0  0  0  0  0  0  0  0
   -4.6481    6.7281  -10.7640 C   0  0  0  0  0  0  0  0  0  0  0  0
   -4.1413    5.4183  -10.8395 O   0  0  0  0  0  0  0  0  0  0  0  0
   -1.9762    6.5631  -10.3956 H   0  0  0  0  0  0  0  0  0  0  0  0
   -3.8187    5.2888  -11.7695 H   0  0  0  0  0  0  0  0  0  0  0  0
  -11.2866    8.8259  -10.3654 N   0  0  0  0  0  0  0  0  0  0  0  0
  -10.3329    7.8867   -9.8689 C   0  0  0  0  0  0  0  0  0  0  0  0
  -10.7360    6.8055   -9.1355 N   0  0  0  0  0  0  0  0  0  0  0  0
   -9.8326    5.8993   -8.6425 C   0  0  0  0  0  0  0  0  0  0  0  0
   -8.4947    6.0575   -8.8764 N   0  0  0  0  0  0  0  0  0  0  0  0
   -8.0972    7.1277   -9.6070 C   0  0  0  0  0  0  0  0  0  0  0  0
   -8.9689    8.0353  -10.1009 C   0  0  0  0  0  0  0  0  0  0  0  0
   -8.3126    9.0109  -10.7570 N   0  0  0  0  0  0  0  0  0  0  0  0
   -7.0101    8.6350  -10.6310 C   0  0  0  0  0  0  0  0  0  0  0  0
   -6.8471    7.4773   -9.9394 N   0  0  0  0  0  0  0  0  0  0  0  0
  -10.9855    9.6539  -10.9256 H   0  0  0  0  0  0  0  0  0  0  0  0
  -12.3039    8.6887  -10.1744 H   0  0  0  0  0  0  0  0  0  0  0  0
   -3.2030    9.2366   -8.4262 C   0  0  0  0  0  0  0  0  0  0  0  0
   -4.2060   10.5593   -9.1968 S   0  0  0  0  0  0  0  0  0  0  0  0
   -4.4117   11.5487   -7.6734 C   0  0  0  0  0  0  0  0  0  0  0  0
   -5.8725   11.9924   -7.5207 C   0  0  0  0  0  0  0  0  0  0  0  0
   -6.8458   11.1397   -8.3730 C   0  0  0  0  0  0  0  0  0  0  0  0
   -7.6588   11.9705   -9.2661 N   0  0  0  0  0  0  0  0  0  0  0  0
   -7.0641   12.3199  -10.0512 H   0  0  0  0  0  0  0  0  0  0  0  0
   -8.0269   12.7989   -8.7437 H   0  0  0  0  0  0  0  0  0  0  0  0
   -7.7668   10.3078   -7.5216 C   0  0  0  0  0  0  0  0  0  0  0  0
   -7.3468    9.2929   -6.8998 O   0  0  0  0  0  0  0  0  0  0  0  0
   -9.1062   10.6693   -7.4169 O   0  0  0  0  0  0  0  0  0  0  0  0
   -9.7491   10.1292   -6.8496 H   0  0  0  0  0  0  0  0  0  0  0  0
  1 19  1  0  0  0
  1  2  1  0  0  0
  1  6  1  0  0  0
  2  3  1  0  0  0
  3 22  1  0  0  0
  3  4  1  0  0  0
  4  5  1  0  0  0
  4  6  1  0  0  0
  5  8  1  0  0  0
  6  7  1  0  0  0
  7  9  1  0  0  0
 10 11  1  0  0  0
 10 20  1  0  0  0
 10 21  1  0  0  0
 11 12  2  0  0  0
 11 16  1  0  0  0
 12 13  1  0  0  0
 13 14  2  0  0  0
 14 15  1  0  0  0
 15 16  2  0  0  0
 15 19  1  0  0  0
 16 17  1  0  0  0
 17 18  2  0  0  0
 18 19  1  0  0  0
 22 23  1  0  0  0
 23 24  1  0  0  0
 24 25  1  0  0  0
 25 26  1  0  0  0
 26 27  1  0  0  0
 26 30  1  0  0  0
 27 28  1  0  0  0
 27 29  1  0  0  0
 30 31  2  0  0  0
 30 32  1  0  0  0
 32 33  1  0  0  0
M  END
> <MODEL>
       1

> <COMPND>
    UNNAMED

> <AUTHOR>
    GENERATED BY OPEN BABEL 3.1.0

> <MASTER>
        0    0    0    0    0    0    0    0   33    0   33    0

> <minimizedAffinity>
-5.64648

> <CNNscore>
0.2392209619

> <CNNaffinity>
3.9241085052

> <CNN_VS>
0.9387289882

> <CNNaffinity_variance>
0.8793789148

$$$$



 33 35  0  0  0  0  0  0  0  0999 V2000
    0.5713    2.7228   -3.0278 C   0  0  0  0  0  0  0  0  0  0  0  0
   -0.0260    2.8821   -1.7560 O   0  0  0  0  0  0  0  0  0  0  0  0
   -0.9775    3.9182   -1.8488 C   0  0  0  0  0  0  0  0  0  0  0  0
   -1.3909    4.0407   -3.3170 C   0  0  0  0  0  0  0  0  0  0  0  0
   -1.8194    5.3340   -3.6736 O   0  0  0  0  0  0  0  0  0  0  0  0
   -0.1526    3.5932   -4.0613 C   0  0  0  0  0  0  0  0  0  0  0  0
    0.6633    4.6840   -4.4117 O   0  0  0  0  0  0  0  0  0  0  0  0
   -1.1591    5.9936   -3.3351 H   0  0  0  0  0  0  0  0  0  0  0  0
    0.3238    5.0292   -5.2786 H   0  0  0  0  0  0  0  0  0  0  0  0
    0.8836   -3.3261   -3.6863 N   0  0  0  0  0  0  0  0  0  0  0  0
    1.2767   -2.0996   -3.0704 C   0  0  0  0  0  0  0  0  0  0  0  0
    2.1734   -2.0939   -2.0382 N   0  0  0  0  0  0  0  0  0  0  0  0
    2.5541   -0.9261   -1.4288 C   0  0  0  0  0  0  0  0  0  0  0  0
    2.0415    0.2714   -1.8444 N   0  0  0  0  0  0  0  0  0  0  0  0
    1.1558    0.2643   -2.8704 C   0  0  0  0  0  0  0  0  0  0  0  0
    0.7637   -0.8743   -3.4847 C   0  0  0  0  0  0  0  0  0  0  0  0
   -0.1425   -0.6048   -4.4434 N   0  0  0  0  0  0  0  0  0  0  0  0
   -0.2652    0.7492   -4.3697 C   0  0  0  0  0  0  0  0  0  0  0  0
    0.5274    1.3120   -3.4209 N   0  0  0  0  0  0  0  0  0  0  0  0
    0.1991   -3.3377   -4.4745 H   0  0  0  0  0  0  0  0  0  0  0  0
    1.2850   -4.2307   -3.3532 H   0  0  0  0  0  0  0  0  0  0  0  0
   -2.1597    3.5986   -0.9279 C   0  0  0  0  0  0  0  0  0  0  0  0
   -1.9319    1.9892   -0.0870 S   0  0  0  0  0  0  0  0  0  0  0  0
   -3.2342    1.1065   -1.0180 C   0  0  0  0  0  0  0  0  0  0  0  0
   -2.6130    0.2973   -2.1640 C   0  0  0  0  0  0  0  0  0  0  0  0
   -3.6792   -0.3890   -3.0544 C   0  0  0  0  0  0  0  0  0  0  0  0
   -3.2146   -1.6838   -3.5607 N   0  0  0  0  0  0  0  0  0  0  0  0
   -3.2199   -2.3821   -2.7831 H   0  0  0  0  0  0  0  0  0  0  0  0
   -2.2332   -1.5965   -3.9125 H   0  0  0  0  0  0  0  0  0  0  0  0
   -4.0786    0.4683   -4.2252 C   0  0  0  0  0  0  0  0  0  0  0  0
   -4.8464    0.0308   -5.1264 O   0  0  0  0  0  0  0  0  0  0  0  0
   -3.5932    1.7692   -4.3111 O   0  0  0  0  0  0  0  0  0  0  0  0
   -3.8465    2.3700   -5.0869 H   0  0  0  0  0  0  0  0  0  0  0  0
  1 19  1  0  0  0
  1  2  1  0  0  0
  1  6  1  0  0  0
  2  3  1  0  0  0
  3 22  1  0  0  0
  3  4  1  0  0  0
  4  5  1  0  0  0
  4  6  1  0  0  0
  5  8  1  0  0  0
  6  7  1  0  0  0
  7  9  1  0  0  0
 10 11  1  0  0  0
 10 20  1  0  0  0
 10 21  1  0  0  0
 11 12  2  0  0  0
 11 16  1  0  0  0
 12 13  1  0  0  0
 13 14  2  0  0  0
 14 15  1  0  0  0
 15 16  2  0  0  0
 15 19  1  0  0  0
 16 17  1  0  0  0
 17 18  2  0  0  0
 18 19  1  0  0  0
 22 23  1  0  0  0
 23 24  1  0  0  0
 24 25  1  0  0  0
 25 26  1  0  0  0
 26 27  1  0  0  0
 26 30  1  0  0  0
 27 28  1  0  0  0
 27 29  1  0  0  0
 30 31  2  0  0  0
 30 32  1  0  0  0
 32 33  1  0  0  0
M  END
> <MODEL>
       1

> <COMPND>
    UNNAMED

> <AUTHOR>
    GENERATED BY OPEN BABEL 3.1.0

> <MASTER>
        0    0    0    0    0    0    0    0   33    0   33    0

> <minimizedAffinity>
-11.35270

> <CNNscore>
0.1946643442

> <CNNaffinity>
5.8436326981

> <CNN_VS>
1.1375468969

> <CNNaffinity_variance>
0.7343715429

$$$$



 33 35  0  0  0  0  0  0  0  0999 V2000
    1.0075    2.1058   -4.1670 C   0  0  0  0  0  0  0  0  0  0  0  0
   -0.0408    2.0585   -3.2190 O   0  0  0  0  0  0  0  0  0  0  0  0
    0.3428    1.1747   -2.1898 C   0  0  0  0  0  0  0  0  0  0  0  0
    1.8707    1.0909   -2.1933 C   0  0  0  0  0  0  0  0  0  0  0  0
    2.3672   -0.1296   -1.6962 O   0  0  0  0  0  0  0  0  0  0  0  0
    2.2251    1.3362   -3.6430 C   0  0  0  0  0  0  0  0  0  0  0  0
    2.3610    0.1302   -4.3539 O   0  0  0  0  0  0  0  0  0  0  0  0
    1.8744   -0.8747   -2.1293 H   0  0  0  0  0  0  0  0  0  0  0  0
    3.2971   -0.1748   -4.2251 H   0  0  0  0  0  0  0  0  0  0  0  0
    1.4039    8.1125   -5.1066 N   0  0  0  0  0  0  0  0  0  0  0  0
    0.6617    6.9006   -4.9707 C   0  0  0  0  0  0  0  0  0  0  0  0
   -0.7045    6.9100   -5.0248 N   0  0  0  0  0  0  0  0  0  0  0  0
   -1.4332    5.7567   -4.8860 C   0  0  0  0  0  0  0  0  0  0  0  0
   -0.8037    4.5589   -4.6895 N   0  0  0  0  0  0  0  0  0  0  0  0
    0.5508    4.5508   -4.6402 C   0  0  0  0  0  0  0  0  0  0  0  0
    1.2900    5.6750   -4.7717 C   0  0  0  0  0  0  0  0  0  0  0  0
    2.6012    5.3939   -4.6512 N   0  0  0  0  0  0  0  0  0  0  0  0
    2.6030    4.0480   -4.4459 C   0  0  0  0  0  0  0  0  0  0  0  0
    1.3598    3.5006   -4.4448 N   0  0  0  0  0  0  0  0  0  0  0  0
    2.4471    8.1125   -5.0657 H   0  0  0  0  0  0  0  0  0  0  0  0
    0.9047    9.0177   -5.2540 H   0  0  0  0  0  0  0  0  0  0  0  0
   -0.2171    1.6824   -0.8570 C   0  0  0  0  0  0  0  0  0  0  0  0
   -1.0841    0.3506    0.0508 S   0  0  0  0  0  0  0  0  0  0  0  0
   -2.7736    0.9482   -0.3103 C   0  0  0  0  0  0  0  0  0  0  0  0
   -2.7315    2.4064   -0.7858 C   0  0  0  0  0  0  0  0  0  0  0  0
   -3.3434    3.3869    0.2461 C   0  0  0  0  0  0  0  0  0  0  0  0
   -3.9558    4.5495   -0.4037 N   0  0  0  0  0  0  0  0  0  0  0  0
   -4.8504    4.2600   -0.8601 H   0  0  0  0  0  0  0  0  0  0  0  0
   -3.3173    4.9194   -1.1453 H   0  0  0  0  0  0  0  0  0  0  0  0
   -2.3237    3.8749    1.2397 C   0  0  0  0  0  0  0  0  0  0  0  0
   -2.1047    3.2508    2.3147 O   0  0  0  0  0  0  0  0  0  0  0  0
   -1.6075    5.0352    0.9634 O   0  0  0  0  0  0  0  0  0  0  0  0
   -0.9135    5.3866    1.6128 H   0  0  0  0  0  0  0  0  0  0  0  0
  1 19  1  0  0  0
  1  2  1  0  0  0
  1  6  1  0  0  0
  2  3  1  0  0  0
  3 22  1  0  0  0
  3  4  1  0  0  0
  4  5  1  0  0  0
  4  6  1  0  0  0
  5  8  1  0  0  0
  6  7  1  0  0  0
  7  9  1  0  0  0
 10 11  1  0  0  0
 10 20  1  0  0  0
 10 21  1  0  0  0
 11 12  2  0  0  0
 11 16  1  0  0  0
 12 13  1  0  0  0
 13 14  2  0  0  0
 14 15  1  0  0  0
 15 16  2  0  0  0
 15 19  1  0  0  0
 16 17  1  0  0  0
 17 18  2  0  0  0
 18 19  1  0  0  0
 22 23  1  0  0  0
 23 24  1  0  0  0
 24 25  1  0  0  0
 25 26  1  0  0  0
 26 27  1  0  0  0
 26 30  1  0  0  0
 27 28  1  0  0  0
 27 29  1  0  0  0
 30 31  2  0  0  0
 30 32  1  0  0  0
 32 33  1  0  0  0
M  END
> <MODEL>
       1

> <COMPND>
    UNNAMED

> <AUTHOR>
    GENERATED BY OPEN BABEL 3.1.0

> <MASTER>
        0    0    0    0    0    0    0    0   33    0   33    0

> <minimizedAffinity>
-10.88374

> <CNNscore>
0.1635779589

> <CNNaffinity>
4.7772932053

> <CNN_VS>
0.7814598680

> <CNNaffinity_variance>
1.7629010677

$$$$



 33 35  0  0  0  0  0  0  0  0999 V2000
   -2.1250   -0.9795   -2.9600 C   0  0  0  0  0  0  0  0  0  0  0  0
   -1.2559   -0.2700   -3.8208 O   0  0  0  0  0  0  0  0  0  0  0  0
   -2.0234    0.2475   -4.8840 C   0  0  0  0  0  0  0  0  0  0  0  0
   -3.4737    0.3474   -4.4061 C   0  0  0  0  0  0  0  0  0  0  0  0
   -4.4162    0.2499   -5.4480 O   0  0  0  0  0  0  0  0  0  0  0  0
   -3.5802   -0.7722   -3.3948 C   0  0  0  0  0  0  0  0  0  0  0  0
   -4.0690   -1.9539   -3.9804 O   0  0  0  0  0  0  0  0  0  0  0  0
   -4.1825   -0.5287   -6.0179 H   0  0  0  0  0  0  0  0  0  0  0  0
   -5.0600   -1.8985   -3.9539 H   0  0  0  0  0  0  0  0  0  0  0  0
   -2.1144    1.6305    2.5453 N   0  0  0  0  0  0  0  0  0  0  0  0
   -2.4381    1.6136    1.1550 C   0  0  0  0  0  0  0  0  0  0  0  0
   -3.1492    2.6370    0.5923 N   0  0  0  0  0  0  0  0  0  0  0  0
   -3.4773    2.6318   -0.7391 C   0  0  0  0  0  0  0  0  0  0  0  0
   -3.0959    1.5933   -1.5426 N   0  0  0  0  0  0  0  0  0  0  0  0
   -2.3875    0.5816   -0.9841 C   0  0  0  0  0  0  0  0  0  0  0  0
   -2.0549    0.5636    0.3261 C   0  0  0  0  0  0  0  0  0  0  0  0
   -1.3841   -0.5645    0.6267 N   0  0  0  0  0  0  0  0  0  0  0  0
   -1.3323   -1.2119   -0.5698 C   0  0  0  0  0  0  0  0  0  0  0  0
   -1.9302   -0.5281   -1.5797 N   0  0  0  0  0  0  0  0  0  0  0  0
   -1.5722    0.8521    2.9814 H   0  0  0  0  0  0  0  0  0  0  0  0
   -2.4165    2.4317    3.1429 H   0  0  0  0  0  0  0  0  0  0  0  0
   -1.4470    1.6027   -5.3068 C   0  0  0  0  0  0  0  0  0  0  0  0
   -1.3289    2.7483   -3.8844 S   0  0  0  0  0  0  0  0  0  0  0  0
    0.4541    3.1026   -4.0781 C   0  0  0  0  0  0  0  0  0  0  0  0
    0.8387    4.3509   -3.2731 C   0  0  0  0  0  0  0  0  0  0  0  0
    2.3678    4.4691   -3.0525 C   0  0  0  0  0  0  0  0  0  0  0  0
    2.7691    5.8450   -2.7450 N   0  0  0  0  0  0  0  0  0  0  0  0
    2.4745    6.0823   -1.7707 H   0  0  0  0  0  0  0  0  0  0  0  0
    2.2934    6.5086   -3.3991 H   0  0  0  0  0  0  0  0  0  0  0  0
    3.1521    3.9966   -4.2471 C   0  0  0  0  0  0  0  0  0  0  0  0
    3.7726    2.8976   -4.2311 O   0  0  0  0  0  0  0  0  0  0  0  0
    3.1891    4.7874   -5.3911 O   0  0  0  0  0  0  0  0  0  0  0  0
    3.7074    4.4941   -6.2110 H   0  0  0  0  0  0  0  0  0  0  0  0
  1 19  1  0  0  0
  1  2  1  0  0  0
  1  6  1  0  0  0
  2  3  1  0  0  0
  3 22  1  0  0  0
  3  4  1  0  0  0
  4  5  1  0  0  0
  4  6  1  0  0  0
  5  8  1  0  0  0
  6  7  1  0  0  0
  7  9  1  0  0  0
 10 11  1  0  0  0
 10 20  1  0  0  0
 10 21  1  0  0  0
 11 12  2  0  0  0
 11 16  1  0  0  0
 12 13  1  0  0  0
 13 14  2  0  0  0
 14 15  1  0  0  0
 15 16  2  0  0  0
 15 19  1  0  0  0
 16 17  1  0  0  0
 17 18  2  0  0  0
 18 19  1  0  0  0
 22 23  1  0  0  0
 23 24  1  0  0  0
 24 25  1  0  0  0
 25 26  1  0  0  0
 26 27  1  0  0  0
 26 30  1  0  0  0
 27 28  1  0  0  0
 27 29  1  0  0  0
 30 31  2  0  0  0
 30 32  1  0  0  0
 32 33  1  0  0  0
M  END
> <MODEL>
       1

> <COMPND>
    UNNAMED

> <AUTHOR>
    GENERATED BY OPEN BABEL 3.1.0

> <MASTER>
        0    0    0    0    0    0    0    0   33    0   33    0

> <minimizedAffinity>
-10.90667

> <CNNscore>
0.1574372649

> <CNNaffinity>
5.2225809097

> <CNN_VS>
0.8222288489

> <CNNaffinity_variance>
0.8352708817

$$$$



 33 35  0  0  0  0  0  0  0  0999 V2000
   -2.5687    0.2956   -1.8292 C   0  0  0  0  0  0  0  0  0  0  0  0
   -1.3175    0.2859   -2.4882 O   0  0  0  0  0  0  0  0  0  0  0  0
   -1.5084    0.7877   -3.7917 C   0  0  0  0  0  0  0  0  0  0  0  0
   -2.7748    1.6466   -3.7794 C   0  0  0  0  0  0  0  0  0  0  0  0
   -3.4248    1.7064   -5.0273 O   0  0  0  0  0  0  0  0  0  0  0  0
   -3.6141    1.0058   -2.6966 C   0  0  0  0  0  0  0  0  0  0  0  0
   -4.5076    0.0579   -3.2270 O   0  0  0  0  0  0  0  0  0  0  0  0
   -3.5089    0.7851   -5.3878 H   0  0  0  0  0  0  0  0  0  0  0  0
   -5.3230    0.5540   -3.5005 H   0  0  0  0  0  0  0  0  0  0  0  0
   -2.3003    3.9837    3.0130 N   0  0  0  0  0  0  0  0  0  0  0  0
   -2.3249    3.7449    1.6057 C   0  0  0  0  0  0  0  0  0  0  0  0
   -2.3212    4.7878    0.7215 N   0  0  0  0  0  0  0  0  0  0  0  0
   -2.3547    4.5765   -0.6330 C   0  0  0  0  0  0  0  0  0  0  0  0
   -2.3919    3.3053   -1.1351 N   0  0  0  0  0  0  0  0  0  0  0  0
   -2.3915    2.2725   -0.2573 C   0  0  0  0  0  0  0  0  0  0  0  0
   -2.3615    2.4563    1.0816 C   0  0  0  0  0  0  0  0  0  0  0  0
   -2.4024    1.2721    1.7211 N   0  0  0  0  0  0  0  0  0  0  0  0
   -2.4541    0.3779    0.6958 C   0  0  0  0  0  0  0  0  0  0  0  0
   -2.4379    0.9616   -0.5306 N   0  0  0  0  0  0  0  0  0  0  0  0
   -2.3036    3.1921    3.6936 H   0  0  0  0  0  0  0  0  0  0  0  0
   -2.2742    4.9621    3.3770 H   0  0  0  0  0  0  0  0  0  0  0  0
   -0.2646    1.5769   -4.2134 C   0  0  0  0  0  0  0  0  0  0  0  0
    0.6409    2.2191   -2.7583 S   0  0  0  0  0  0  0  0  0  0  0  0
    1.6734    0.7312   -2.5098 C   0  0  0  0  0  0  0  0  0  0  0  0
    2.2668    0.2663   -3.8462 C   0  0  0  0  0  0  0  0  0  0  0  0
    2.0561   -1.2482   -4.0963 C   0  0  0  0  0  0  0  0  0  0  0  0
    1.0406   -1.4945   -5.1244 N   0  0  0  0  0  0  0  0  0  0  0  0
    1.4335   -1.2571   -6.0633 H   0  0  0  0  0  0  0  0  0  0  0  0
    0.2087   -0.8828   -4.9560 H   0  0  0  0  0  0  0  0  0  0  0  0
    1.6573   -1.9806   -2.8434 C   0  0  0  0  0  0  0  0  0  0  0  0
    2.5235   -2.4373   -2.0470 O   0  0  0  0  0  0  0  0  0  0  0  0
    0.3065   -2.1530   -2.5584 O   0  0  0  0  0  0  0  0  0  0  0  0
    0.0084   -2.6404   -1.7215 H   0  0  0  0  0  0  0  0  0  0  0  0
  1 19  1  0  0  0
  1  2  1  0  0  0
  1  6  1  0  0  0
  2  3  1  0  0  0
  3 22  1  0  0  0
  3  4  1  0  0  0
  4  5  1  0  0  0
  4  6  1  0  0  0
  5  8  1  0  0  0
  6  7  1  0  0  0
  7  9  1  0  0  0
 10 11  1  0  0  0
 10 20  1  0  0  0
 10 21  1  0  0  0
 11 12  2  0  0  0
 11 16  1  0  0  0
 12 13  1  0  0  0
 13 14  2  0  0  0
 14 15  1  0  0  0
 15 16  2  0  0  0
 15 19  1  0  0  0
 16 17  1  0  0  0
 17 18  2  0  0  0
 18 19  1  0  0  0
 22 23  1  0  0  0
 23 24  1  0  0  0
 24 25  1  0  0  0
 25 26  1  0  0  0
 26 27  1  0  0  0
 26 30  1  0  0  0
 27 28  1  0  0  0
 27 29  1  0  0  0
 30 31  2  0  0  0
 30 32  1  0  0  0
 32 33  1  0  0  0
M  END
> <MODEL>
       1

> <COMPND>
    UNNAMED

> <AUTHOR>
    GENERATED BY OPEN BABEL 3.1.0

> <MASTER>
        0    0    0    0    0    0    0    0   33    0   33    0

> <minimizedAffinity>
-10.49668

> <CNNscore>
0.1295992285

> <CNNaffinity>
5.2500877380

> <CNN_VS>
0.6804073453

> <CNNaffinity_variance>
1.0219439268

$$$$
